EESchema Schematic File Version 4
LIBS:filter-examples-cache
EELAYER 26 0
EELAYER END
$Descr A4 11693 8268
encoding utf-8
Sheet 1 7
Title ""
Date ""
Rev ""
Comp ""
Comment1 ""
Comment2 ""
Comment3 ""
Comment4 ""
$EndDescr
$Sheet
S 2100 1300 950  500 
U 5B8944CC
F0 "LowPass" 50
F1 "low-pass.sch" 50
$EndSheet
$Sheet
S 3250 1300 900  500 
U 5B8944E1
F0 "HighPass" 50
F1 "high-pass.sch" 50
$EndSheet
$Sheet
S 4300 1300 1050 500 
U 5B8944F3
F0 "BandPassWideBand" 50
F1 "band-pass-wide-band.sch" 50
$EndSheet
$Sheet
S 5600 1300 1000 500 
U 5B894507
F0 "BandPassNarrowBand" 50
F1 "band-pass-narrow-band.sch" 50
$EndSheet
$Sheet
S 2100 2100 950  400 
U 5B89451A
F0 "BandStopWideBand" 50
F1 "band-stop-wide-band.sch" 50
$EndSheet
$Sheet
S 3250 2050 900  450 
U 5B89452D
F0 "BandStopNarrowBand" 50
F1 "band-stop-narrow-band.sch" 50
$EndSheet
Text Notes 2200 1050 0    50   ~ 0
.ac dec 10 1000000 100000000
$EndSCHEMATC
